

                          U.S. Geological Survey
        Coupled Groundwater and Surface-water FLOW model (GSFLOW)
                         Version 2.0.0 06/25/2018

    An integration of the Precipitation-Runoff Modeling System (PRMS)
    and the Modular Groundwater Model (MODFLOW-NWT and MODFLOW-2005)


               Precipitation-Runoff Modeling System (PRMS)
                       Version 5.0.0 06/01/2018

                            MODFLOW-NWT-SWR1 
  U.S. GEOLOGICAL SURVEY MODULAR FINITE-DIFFERENCE GROUNDWATER-FLOW MODEL
                         WITH NEWTON FORMULATION
                         Version 1.1.4 4/01/2018
              BASED ON MODFLOW-2005 Version 1.12.0 02/03/2017
                      SWR1 Version 1.04.0 09/15/2016

              PROCESSES: GWF and OBS
              PACKAGES:  BAS, BCF, CHD, DE4, FHB, GAG, GHB,
                         HFB, HUF, LAK LPF, MNW1, MNW2, NWT,
                         PCG, SFR, SIP, UPW, UZF, WEL, SWI, SWT, LMT


        Process            Available Modules
--------------------------------------------------------------------
  Basin Definition: basin
    Cascading Flow: cascade
  Time Series Data: obs, water_use_read, dynamic_param_read
   Potet Solar Rad: soltab
  Temperature Dist: temp_1sta, temp_laps, temp_dist2, climate_hru
       Precip Dist: precip_1sta, precip_laps, precip_dist2,
                    climate_hru
Temp & Precip Dist: xyz_dist, ide_dist
    Solar Rad Dist: ccsolrad, ddsolrad, climate_hru
Transpiration Dist: transp_tindex, climate_hru, transp_frost
      Potential ET: potet_hamon, potet_jh, potet_pan, climate_hru,
                    potet_hs, potet_pt, potet_pm, potet_pm_sta
      Interception: intcp
     Snow Dynamics: snowcomp
    Surface Runoff: srunoff_smidx, srunoff_carea
         Soil Zone: soilzone
       Groundwater: gwflow
Streamflow Routing: strmflow, strmflow_in_out, muskingum,
                    muskingum_lake
Stream Temperature: stream_temp
    Output Summary: basin_sum, subbasin, map_results, prms_summary,
                    nhru_summary, nsub_summary, water_balance
                    basin_summary, nsegment_summary
     Preprocessing: write_climate_hru, frost_date
--------------------------------------------------------------------


    Active modules listed in the order in which they are called

        Process                   Module                Version Date
====================================================================
GSFLOW Computation Order       gsflow_prms                2018-06-25
Basin Definition               basin                      2018-04-06
Cascading Flow                 cascade                    2018-05-25
Common States and Fluxes       climateflow                2018-04-25
Potential Solar Radiation      soltab                     2016-09-09
PRMS Set Time Variables        prms_time                  2015-03-31
Time Series Data               obs                        2018-02-23
Temperature Distribution       temp_1sta                  2018-01-16
Precipitation Distribution     precip_1sta                2016-10-21
Solar Radiation Distribution   ddsolrad                   2016-11-03
Transpiration Distribution     transp_tindex              2015-01-06
Potential Evapotranspiration   potet_jh                   2016-05-10
Canopy Interception            intcp                      2018-02-26
Snow Dynamics                  snowcomp                   2018-05-04
Surface Runoff                 srunoff_smidx              2018-04-25
Soil Zone Computations         soilzone                   2018-04-25
GSFLOW PRMS to MODFLOW         gsflow_prms2mf             2017-11-15
GSFLOW MODFLOW to PRMS         gsflow_mf2prms             2017-11-15
GSFLOW Output Budget Summary   gsflow_budget              2018-03-02
GSFLOW Output CSV Summary      gsflow_sum                 2018-02-12
Output Summary                 subbasin                   2018-04-25
====================================================================
GSFLOW MODFLOW main            gsflow_modflow             2018-07-06
====================================================================
MODFLOW Packages
====================================================================
UZF-NWT Package                gwf2uzf1_NWT               2017-03-08
SFR-NWT Package                gwf2sfr7_NWT               2017-03-08
LAK-NWT Package                gwf2lak7_NWT               2016-07-21
====================================================================

Using NAME file: carmel.nam

Using Solver Package: NWT 

Using Control File: Carmel.control

Using Parameter File: .\INPUT\prms\carmel_main.param

Writing var_init_file: .\input\prms\prms_carmel.in

Writing var_save_file: .\output\prms_carmel.out

Writing PRMS Water Budget File: .\output\carmel_prms.out

mxsziter = 200

Tolerance check for gvr_hru_pct:  0.5000000D-05

Percent difference between GVR mapping and active model domain:  0.0000000D+00

Water Budget print frequency is:   1

Writing GSFLOW Water Budget File: .\output\gsflow.out

Writing GSFLOW CSV File: .\output\gsflow.csv

Simulation time period: 1991/10/01 - 2015/09/30

====================================================================

***TIME STEP FAILED TO CONVERGE - Date: 1991/10/01 number:     1

Date: 1991/10/01; Stress:  1; Step:     1; Simulation step:17533
                  MF iterations:      200; SZ iterations:    200

***TIME STEP FAILED TO CONVERGE - Date: 1991/10/02 number:     2

Date: 1991/10/02; Stress:  1; Step:     2; Simulation step:17534
                  MF iterations:      200; SZ iterations:    200

***TIME STEP FAILED TO CONVERGE - Date: 1991/10/03 number:     3

Date: 1991/10/03; Stress:  1; Step:     3; Simulation step:17535
                  MF iterations:      200; SZ iterations:    200

***TIME STEP FAILED TO CONVERGE - Date: 1991/10/04 number:     4

Date: 1991/10/04; Stress:  1; Step:     4; Simulation step:17536
                  MF iterations:      200; SZ iterations:    200

Date: 1991/10/05; Stress:  1; Step:     5; Simulation step:17537
                  MF iterations:       90; SZ iterations:     90

***TIME STEP FAILED TO CONVERGE - Date: 1991/10/06 number:     5

Date: 1991/10/06; Stress:  1; Step:     6; Simulation step:17538
                  MF iterations:      200; SZ iterations:    200

***TIME STEP FAILED TO CONVERGE - Date: 1991/10/07 number:     6

Date: 1991/10/07; Stress:  1; Step:     7; Simulation step:17539
                  MF iterations:      200; SZ iterations:    200

Date: 1991/10/08; Stress:  1; Step:     8; Simulation step:17540
                  MF iterations:       40; SZ iterations:     40

Date: 1991/10/09; Stress:  1; Step:     9; Simulation step:17541
                  MF iterations:      110; SZ iterations:    110

Date: 1991/10/10; Stress:  1; Step:    10; Simulation step:17542
                  MF iterations:        5; SZ iterations:      5

Date: 1991/10/11; Stress:  1; Step:    11; Simulation step:17543
                  MF iterations:       13; SZ iterations:     13

Date: 1991/10/12; Stress:  1; Step:    12; Simulation step:17544
                  MF iterations:       23; SZ iterations:     23

Date: 1991/10/13; Stress:  1; Step:    13; Simulation step:17545
                  MF iterations:       20; SZ iterations:     20

Date: 1991/10/14; Stress:  1; Step:    14; Simulation step:17546
                  MF iterations:       62; SZ iterations:     62

Date: 1991/10/15; Stress:  1; Step:    15; Simulation step:17547
                  MF iterations:        3; SZ iterations:      3

Date: 1991/10/16; Stress:  1; Step:    16; Simulation step:17548
                  MF iterations:        3; SZ iterations:      3

Date: 1991/10/17; Stress:  1; Step:    17; Simulation step:17549
                  MF iterations:       23; SZ iterations:     23

Date: 1991/10/18; Stress:  1; Step:    18; Simulation step:17550
                  MF iterations:        4; SZ iterations:      4

Date: 1991/10/19; Stress:  1; Step:    19; Simulation step:17551
                  MF iterations:        3; SZ iterations:      3

Date: 1991/10/20; Stress:  1; Step:    20; Simulation step:17552
                  MF iterations:        4; SZ iterations:      4

Date: 1991/10/21; Stress:  1; Step:    21; Simulation step:17553
                  MF iterations:        3; SZ iterations:      3

Date: 1991/10/22; Stress:  1; Step:    22; Simulation step:17554
                  MF iterations:        4; SZ iterations:      4

Date: 1991/10/23; Stress:  1; Step:    23; Simulation step:17555
                  MF iterations:       11; SZ iterations:     11

Date: 1991/10/24; Stress:  1; Step:    24; Simulation step:17556
                  MF iterations:       10; SZ iterations:     10

Date: 1991/10/25; Stress:  1; Step:    25; Simulation step:17557
                  MF iterations:       10; SZ iterations:     10

Date: 1991/10/26; Stress:  1; Step:    26; Simulation step:17558
                  MF iterations:       15; SZ iterations:     15

Date: 1991/10/27; Stress:  1; Step:    27; Simulation step:17559
                  MF iterations:      147; SZ iterations:    147

Date: 1991/10/28; Stress:  1; Step:    28; Simulation step:17560
                  MF iterations:       29; SZ iterations:     29

Date: 1991/10/29; Stress:  1; Step:    29; Simulation step:17561
                  MF iterations:       20; SZ iterations:     20

Date: 1991/10/30; Stress:  1; Step:    30; Simulation step:17562
                  MF iterations:       87; SZ iterations:     87

Date: 1991/10/31; Stress:  1; Step:    31; Simulation step:17563
                  MF iterations:       17; SZ iterations:     17

Date: 1991/11/01; Stress:  1; Step:    32; Simulation step:17564
                  MF iterations:       13; SZ iterations:     13

Date: 1991/11/02; Stress:  1; Step:    33; Simulation step:17565
                  MF iterations:       26; SZ iterations:     26

Date: 1991/11/03; Stress:  1; Step:    34; Simulation step:17566
                  MF iterations:       31; SZ iterations:     31

Date: 1991/11/04; Stress:  1; Step:    35; Simulation step:17567
                  MF iterations:       64; SZ iterations:     64

Date: 1991/11/05; Stress:  1; Step:    36; Simulation step:17568
                  MF iterations:       39; SZ iterations:     39

Date: 1991/11/06; Stress:  1; Step:    37; Simulation step:17569
                  MF iterations:        7; SZ iterations:      7

Date: 1991/11/07; Stress:  1; Step:    38; Simulation step:17570
                  MF iterations:        7; SZ iterations:      7

Date: 1991/11/08; Stress:  1; Step:    39; Simulation step:17571
                  MF iterations:       10; SZ iterations:     10

Date: 1991/11/09; Stress:  1; Step:    40; Simulation step:17572
                  MF iterations:        6; SZ iterations:      6

Date: 1991/11/10; Stress:  1; Step:    41; Simulation step:17573
                  MF iterations:        9; SZ iterations:      9

Date: 1991/11/11; Stress:  1; Step:    42; Simulation step:17574
                  MF iterations:        4; SZ iterations:      4

Date: 1991/11/12; Stress:  1; Step:    43; Simulation step:17575
                  MF iterations:        3; SZ iterations:      3

Date: 1991/11/13; Stress:  1; Step:    44; Simulation step:17576
                  MF iterations:        9; SZ iterations:      9

Date: 1991/11/14; Stress:  1; Step:    45; Simulation step:17577
                  MF iterations:       10; SZ iterations:     10

Date: 1991/11/15; Stress:  1; Step:    46; Simulation step:17578
                  MF iterations:        8; SZ iterations:      8

Date: 1991/11/16; Stress:  1; Step:    47; Simulation step:17579
                  MF iterations:        7; SZ iterations:      7

Date: 1991/11/17; Stress:  1; Step:    48; Simulation step:17580
                  MF iterations:        9; SZ iterations:      9

Date: 1991/11/18; Stress:  1; Step:    49; Simulation step:17581
                  MF iterations:        8; SZ iterations:      8

Date: 1991/11/19; Stress:  1; Step:    50; Simulation step:17582
                  MF iterations:       11; SZ iterations:     11

Date: 1991/11/20; Stress:  1; Step:    51; Simulation step:17583
                  MF iterations:       75; SZ iterations:     75

Date: 1991/11/21; Stress:  1; Step:    52; Simulation step:17584
                  MF iterations:       10; SZ iterations:     10

Date: 1991/11/22; Stress:  1; Step:    53; Simulation step:17585
                  MF iterations:       10; SZ iterations:     10

Date: 1991/11/23; Stress:  1; Step:    54; Simulation step:17586
                  MF iterations:        7; SZ iterations:      7

Date: 1991/11/24; Stress:  1; Step:    55; Simulation step:17587
                  MF iterations:        7; SZ iterations:      7

Date: 1991/11/25; Stress:  1; Step:    56; Simulation step:17588
                  MF iterations:        7; SZ iterations:      7

Date: 1991/11/26; Stress:  1; Step:    57; Simulation step:17589
                  MF iterations:        7; SZ iterations:      7

Date: 1991/11/27; Stress:  1; Step:    58; Simulation step:17590
                  MF iterations:        5; SZ iterations:      5

Date: 1991/11/28; Stress:  1; Step:    59; Simulation step:17591
                  MF iterations:        3; SZ iterations:      3

Date: 1991/11/29; Stress:  1; Step:    60; Simulation step:17592
                  MF iterations:        3; SZ iterations:      3

Date: 1991/11/30; Stress:  1; Step:    61; Simulation step:17593
                  MF iterations:        4; SZ iterations:      4

Date: 1991/12/01; Stress:  1; Step:    62; Simulation step:17594
                  MF iterations:        6; SZ iterations:      6

Date: 1991/12/02; Stress:  1; Step:    63; Simulation step:17595
                  MF iterations:        9; SZ iterations:      9

Date: 1991/12/03; Stress:  1; Step:    64; Simulation step:17596
                  MF iterations:       93; SZ iterations:     93

Date: 1991/12/04; Stress:  1; Step:    65; Simulation step:17597
                  MF iterations:        3; SZ iterations:      3

Date: 1991/12/05; Stress:  1; Step:    66; Simulation step:17598
                  MF iterations:        3; SZ iterations:      3

Date: 1991/12/06; Stress:  1; Step:    67; Simulation step:17599
                  MF iterations:        3; SZ iterations:      3

Date: 1991/12/07; Stress:  1; Step:    68; Simulation step:17600
                  MF iterations:        5; SZ iterations:      5

Date: 1991/12/08; Stress:  1; Step:    69; Simulation step:17601
                  MF iterations:        9; SZ iterations:      9

Date: 1991/12/09; Stress:  1; Step:    70; Simulation step:17602
                  MF iterations:        2; SZ iterations:      2

Date: 1991/12/10; Stress:  1; Step:    71; Simulation step:17603
                  MF iterations:        3; SZ iterations:      3

Date: 1991/12/11; Stress:  1; Step:    72; Simulation step:17604
                  MF iterations:       28; SZ iterations:     28

Date: 1991/12/12; Stress:  1; Step:    73; Simulation step:17605
                  MF iterations:        3; SZ iterations:      3

Date: 1991/12/13; Stress:  1; Step:    74; Simulation step:17606
                  MF iterations:        3; SZ iterations:      3

Date: 1991/12/14; Stress:  1; Step:    75; Simulation step:17607
                  MF iterations:        3; SZ iterations:      3

Date: 1991/12/15; Stress:  1; Step:    76; Simulation step:17608
                  MF iterations:        3; SZ iterations:      3

Date: 1991/12/16; Stress:  1; Step:    77; Simulation step:17609
                  MF iterations:        6; SZ iterations:      6

Date: 1991/12/17; Stress:  1; Step:    78; Simulation step:17610
                  MF iterations:        5; SZ iterations:      5

Date: 1991/12/18; Stress:  1; Step:    79; Simulation step:17611
                  MF iterations:       28; SZ iterations:     28

Date: 1991/12/19; Stress:  1; Step:    80; Simulation step:17612
                  MF iterations:        8; SZ iterations:      8

Date: 1991/12/20; Stress:  1; Step:    81; Simulation step:17613
                  MF iterations:       57; SZ iterations:     57

Date: 1991/12/21; Stress:  1; Step:    82; Simulation step:17614
                  MF iterations:        4; SZ iterations:      4

Date: 1991/12/22; Stress:  1; Step:    83; Simulation step:17615
                  MF iterations:       45; SZ iterations:     45

Date: 1991/12/23; Stress:  1; Step:    84; Simulation step:17616
                  MF iterations:        9; SZ iterations:      9

Date: 1991/12/24; Stress:  1; Step:    85; Simulation step:17617
                  MF iterations:       10; SZ iterations:     10

Date: 1991/12/25; Stress:  1; Step:    86; Simulation step:17618
                  MF iterations:        8; SZ iterations:      8

Date: 1991/12/26; Stress:  1; Step:    87; Simulation step:17619
                  MF iterations:       25; SZ iterations:     25

Date: 1991/12/27; Stress:  1; Step:    88; Simulation step:17620
                  MF iterations:        4; SZ iterations:      4

Date: 1991/12/28; Stress:  1; Step:    89; Simulation step:17621
                  MF iterations:      118; SZ iterations:    118

Date: 1991/12/29; Stress:  1; Step:    90; Simulation step:17622
                  MF iterations:        9; SZ iterations:      9

Date: 1991/12/30; Stress:  1; Step:    91; Simulation step:17623
                  MF iterations:        5; SZ iterations:      5

Date: 1991/12/31; Stress:  1; Step:    92; Simulation step:17624
                  MF iterations:        8; SZ iterations:      8

Date: 1992/01/01; Stress:  1; Step:    93; Simulation step:17625
                  MF iterations:       11; SZ iterations:     11

Date: 1992/01/02; Stress:  1; Step:    94; Simulation step:17626
                  MF iterations:       19; SZ iterations:     19

Date: 1992/01/03; Stress:  1; Step:    95; Simulation step:17627
                  MF iterations:        4; SZ iterations:      4

Date: 1992/01/04; Stress:  1; Step:    96; Simulation step:17628
                  MF iterations:       11; SZ iterations:     11

Date: 1992/01/05; Stress:  1; Step:    97; Simulation step:17629
                  MF iterations:        3; SZ iterations:      3

Date: 1992/01/06; Stress:  1; Step:    98; Simulation step:17630
                  MF iterations:       14; SZ iterations:     14

Date: 1992/01/07; Stress:  1; Step:    99; Simulation step:17631
                  MF iterations:        5; SZ iterations:      5

Date: 1992/01/08; Stress:  1; Step:   100; Simulation step:17632
                  MF iterations:        9; SZ iterations:      9

Date: 1992/01/09; Stress:  1; Step:   101; Simulation step:17633
                  MF iterations:        5; SZ iterations:      5

Date: 1992/01/10; Stress:  1; Step:   102; Simulation step:17634
                  MF iterations:       10; SZ iterations:     10

Date: 1992/01/11; Stress:  1; Step:   103; Simulation step:17635
                  MF iterations:       15; SZ iterations:     15

Date: 1992/01/12; Stress:  1; Step:   104; Simulation step:17636
                  MF iterations:       18; SZ iterations:     18

Date: 1992/01/13; Stress:  1; Step:   105; Simulation step:17637
                  MF iterations:        4; SZ iterations:      4

Date: 1992/01/14; Stress:  1; Step:   106; Simulation step:17638
                  MF iterations:        4; SZ iterations:      4

Date: 1992/01/15; Stress:  1; Step:   107; Simulation step:17639
                  MF iterations:       12; SZ iterations:     12

Date: 1992/01/16; Stress:  1; Step:   108; Simulation step:17640
                  MF iterations:        4; SZ iterations:      4

Date: 1992/01/17; Stress:  1; Step:   109; Simulation step:17641
                  MF iterations:        4; SZ iterations:      4

Date: 1992/01/18; Stress:  1; Step:   110; Simulation step:17642
                  MF iterations:        5; SZ iterations:      5

Date: 1992/01/19; Stress:  1; Step:   111; Simulation step:17643
                  MF iterations:        8; SZ iterations:      8

Date: 1992/01/20; Stress:  1; Step:   112; Simulation step:17644
                  MF iterations:        4; SZ iterations:      4

Date: 1992/01/21; Stress:  1; Step:   113; Simulation step:17645
                  MF iterations:        3; SZ iterations:      3

Date: 1992/01/22; Stress:  1; Step:   114; Simulation step:17646
                  MF iterations:        9; SZ iterations:      9

Date: 1992/01/23; Stress:  1; Step:   115; Simulation step:17647
                  MF iterations:       24; SZ iterations:     24

Date: 1992/01/24; Stress:  1; Step:   116; Simulation step:17648
                  MF iterations:        3; SZ iterations:      3

Date: 1992/01/25; Stress:  1; Step:   117; Simulation step:17649
                  MF iterations:        3; SZ iterations:      3

Date: 1992/01/26; Stress:  1; Step:   118; Simulation step:17650
                  MF iterations:        8; SZ iterations:      8

Date: 1992/01/27; Stress:  1; Step:   119; Simulation step:17651
                  MF iterations:       10; SZ iterations:     10

Date: 1992/01/28; Stress:  1; Step:   120; Simulation step:17652
                  MF iterations:        9; SZ iterations:      9

Date: 1992/01/29; Stress:  1; Step:   121; Simulation step:17653
                  MF iterations:        4; SZ iterations:      4

Date: 1992/01/30; Stress:  1; Step:   122; Simulation step:17654
                  MF iterations:        4; SZ iterations:      4

Date: 1992/01/31; Stress:  1; Step:   123; Simulation step:17655
                  MF iterations:        9; SZ iterations:      9

Date: 1992/02/01; Stress:  1; Step:   124; Simulation step:17656
                  MF iterations:        9; SZ iterations:      9

Date: 1992/02/02; Stress:  1; Step:   125; Simulation step:17657
                  MF iterations:        8; SZ iterations:      8

Date: 1992/02/03; Stress:  1; Step:   126; Simulation step:17658
                  MF iterations:       12; SZ iterations:     12

Date: 1992/02/04; Stress:  1; Step:   127; Simulation step:17659
                  MF iterations:        6; SZ iterations:      6

Date: 1992/02/05; Stress:  1; Step:   128; Simulation step:17660
                  MF iterations:       12; SZ iterations:     12

Date: 1992/02/06; Stress:  1; Step:   129; Simulation step:17661
                  MF iterations:        8; SZ iterations:      8

Date: 1992/02/07; Stress:  1; Step:   130; Simulation step:17662
                  MF iterations:       11; SZ iterations:     11

Date: 1992/02/08; Stress:  1; Step:   131; Simulation step:17663
                  MF iterations:       11; SZ iterations:     11

Date: 1992/02/09; Stress:  1; Step:   132; Simulation step:17664
                  MF iterations:        5; SZ iterations:      5

Date: 1992/02/10; Stress:  1; Step:   133; Simulation step:17665
                  MF iterations:       17; SZ iterations:     17

Date: 1992/02/11; Stress:  1; Step:   134; Simulation step:17666
                  MF iterations:       68; SZ iterations:     68

Date: 1992/02/12; Stress:  1; Step:   135; Simulation step:17667
                  MF iterations:       29; SZ iterations:     29

Date: 1992/02/13; Stress:  1; Step:   136; Simulation step:17668
                  MF iterations:        4; SZ iterations:      4

Date: 1992/02/14; Stress:  1; Step:   137; Simulation step:17669
                  MF iterations:        8; SZ iterations:      8

***TIME STEP FAILED TO CONVERGE - Date: 1992/02/15 number:     7

Date: 1992/02/15; Stress:  1; Step:   138; Simulation step:17670
                  MF iterations:      200; SZ iterations:    200

Date: 1992/02/16; Stress:  1; Step:   139; Simulation step:17671
                  MF iterations:      102; SZ iterations:    102

Date: 1992/02/17; Stress:  1; Step:   140; Simulation step:17672
                  MF iterations:        4; SZ iterations:      4

Date: 1992/02/18; Stress:  1; Step:   141; Simulation step:17673
                  MF iterations:        5; SZ iterations:      5

Date: 1992/02/19; Stress:  1; Step:   142; Simulation step:17674
                  MF iterations:        4; SZ iterations:      4

Date: 1992/02/20; Stress:  1; Step:   143; Simulation step:17675
                  MF iterations:        5; SZ iterations:      5

Date: 1992/02/21; Stress:  1; Step:   144; Simulation step:17676
                  MF iterations:       17; SZ iterations:     17

Date: 1992/02/22; Stress:  1; Step:   145; Simulation step:17677
                  MF iterations:        9; SZ iterations:      9

Date: 1992/02/23; Stress:  1; Step:   146; Simulation step:17678
                  MF iterations:        4; SZ iterations:      4

Date: 1992/02/24; Stress:  1; Step:   147; Simulation step:17679
                  MF iterations:        8; SZ iterations:      8

Date: 1992/02/25; Stress:  1; Step:   148; Simulation step:17680
                  MF iterations:        4; SZ iterations:      4

Date: 1992/02/26; Stress:  1; Step:   149; Simulation step:17681
                  MF iterations:        4; SZ iterations:      4

Date: 1992/02/27; Stress:  1; Step:   150; Simulation step:17682
                  MF iterations:        6; SZ iterations:      6

Date: 1992/02/28; Stress:  1; Step:   151; Simulation step:17683
                  MF iterations:        4; SZ iterations:      4

Date: 1992/02/29; Stress:  1; Step:   152; Simulation step:17684
                  MF iterations:        4; SZ iterations:      4

Date: 1992/03/01; Stress:  1; Step:   153; Simulation step:17685
                  MF iterations:       21; SZ iterations:     21

Date: 1992/03/02; Stress:  1; Step:   154; Simulation step:17686
                  MF iterations:        9; SZ iterations:      9

Date: 1992/03/03; Stress:  1; Step:   155; Simulation step:17687
                  MF iterations:        4; SZ iterations:      4

Date: 1992/03/04; Stress:  1; Step:   156; Simulation step:17688
                  MF iterations:       13; SZ iterations:     13

Date: 1992/03/05; Stress:  1; Step:   157; Simulation step:17689
                  MF iterations:        4; SZ iterations:      4

Date: 1992/03/06; Stress:  1; Step:   158; Simulation step:17690
                  MF iterations:       41; SZ iterations:     41

Date: 1992/03/07; Stress:  1; Step:   159; Simulation step:17691
                  MF iterations:        3; SZ iterations:      3

Date: 1992/03/08; Stress:  1; Step:   160; Simulation step:17692
                  MF iterations:        9; SZ iterations:      9

Date: 1992/03/09; Stress:  1; Step:   161; Simulation step:17693
                  MF iterations:       29; SZ iterations:     29

Date: 1992/03/10; Stress:  1; Step:   162; Simulation step:17694
                  MF iterations:       27; SZ iterations:     27

Date: 1992/03/11; Stress:  1; Step:   163; Simulation step:17695
                  MF iterations:        3; SZ iterations:      3

Date: 1992/03/12; Stress:  1; Step:   164; Simulation step:17696
                  MF iterations:        6; SZ iterations:      6

Date: 1992/03/13; Stress:  1; Step:   165; Simulation step:17697
                  MF iterations:        8; SZ iterations:      8

Date: 1992/03/14; Stress:  1; Step:   166; Simulation step:17698
                  MF iterations:        8; SZ iterations:      8

Date: 1992/03/15; Stress:  1; Step:   167; Simulation step:17699
                  MF iterations:        3; SZ iterations:      3

Date: 1992/03/16; Stress:  1; Step:   168; Simulation step:17700
                  MF iterations:        8; SZ iterations:      8

Date: 1992/03/17; Stress:  1; Step:   169; Simulation step:17701
                  MF iterations:        7; SZ iterations:      7

Date: 1992/03/18; Stress:  1; Step:   170; Simulation step:17702
                  MF iterations:       20; SZ iterations:     20

Date: 1992/03/19; Stress:  1; Step:   171; Simulation step:17703
                  MF iterations:        4; SZ iterations:      4

Date: 1992/03/20; Stress:  1; Step:   172; Simulation step:17704
                  MF iterations:        6; SZ iterations:      6

Date: 1992/03/21; Stress:  1; Step:   173; Simulation step:17705
                  MF iterations:        4; SZ iterations:      4

Date: 1992/03/22; Stress:  1; Step:   174; Simulation step:17706
                  MF iterations:        3; SZ iterations:      3

Date: 1992/03/23; Stress:  1; Step:   175; Simulation step:17707
                  MF iterations:        3; SZ iterations:      3

Date: 1992/03/24; Stress:  1; Step:   176; Simulation step:17708
                  MF iterations:        9; SZ iterations:      9

Date: 1992/03/25; Stress:  1; Step:   177; Simulation step:17709
                  MF iterations:        6; SZ iterations:      6

Date: 1992/03/26; Stress:  1; Step:   178; Simulation step:17710
                  MF iterations:       10; SZ iterations:     10

Date: 1992/03/27; Stress:  1; Step:   179; Simulation step:17711
                  MF iterations:       10; SZ iterations:     10

Date: 1992/03/28; Stress:  1; Step:   180; Simulation step:17712
                  MF iterations:        9; SZ iterations:      9

Date: 1992/03/29; Stress:  1; Step:   181; Simulation step:17713
                  MF iterations:       23; SZ iterations:     23

Date: 1992/03/30; Stress:  1; Step:   182; Simulation step:17714
                  MF iterations:        7; SZ iterations:      7

Date: 1992/03/31; Stress:  1; Step:   183; Simulation step:17715
                  MF iterations:       16; SZ iterations:     16

Date: 1992/04/01; Stress:  1; Step:   184; Simulation step:17716
                  MF iterations:       11; SZ iterations:     11

Date: 1992/04/02; Stress:  1; Step:   185; Simulation step:17717
                  MF iterations:        9; SZ iterations:      9

Date: 1992/04/03; Stress:  1; Step:   186; Simulation step:17718
                  MF iterations:        8; SZ iterations:      8

Date: 1992/04/04; Stress:  1; Step:   187; Simulation step:17719
                  MF iterations:        7; SZ iterations:      7

Date: 1992/04/05; Stress:  1; Step:   188; Simulation step:17720
                  MF iterations:        7; SZ iterations:      7

Date: 1992/04/06; Stress:  1; Step:   189; Simulation step:17721
                  MF iterations:       18; SZ iterations:     18

Date: 1992/04/07; Stress:  1; Step:   190; Simulation step:17722
                  MF iterations:       11; SZ iterations:     11

Date: 1992/04/08; Stress:  1; Step:   191; Simulation step:17723
                  MF iterations:        8; SZ iterations:      8

Date: 1992/04/09; Stress:  1; Step:   192; Simulation step:17724
                  MF iterations:        6; SZ iterations:      6

Date: 1992/04/10; Stress:  1; Step:   193; Simulation step:17725
                  MF iterations:        9; SZ iterations:      9

Date: 1992/04/11; Stress:  1; Step:   194; Simulation step:17726
                  MF iterations:       10; SZ iterations:     10

Date: 1992/04/12; Stress:  1; Step:   195; Simulation step:17727
                  MF iterations:        9; SZ iterations:      9

Date: 1992/04/13; Stress:  1; Step:   196; Simulation step:17728
                  MF iterations:       10; SZ iterations:     10

Date: 1992/04/14; Stress:  1; Step:   197; Simulation step:17729
                  MF iterations:        9; SZ iterations:      9

Date: 1992/04/15; Stress:  1; Step:   198; Simulation step:17730
                  MF iterations:       13; SZ iterations:     13

Date: 1992/04/16; Stress:  1; Step:   199; Simulation step:17731
                  MF iterations:       14; SZ iterations:     14

Date: 1992/04/17; Stress:  1; Step:   200; Simulation step:17732
                  MF iterations:       13; SZ iterations:     13

Date: 1992/04/18; Stress:  1; Step:   201; Simulation step:17733
                  MF iterations:       30; SZ iterations:     30

Date: 1992/04/19; Stress:  1; Step:   202; Simulation step:17734
                  MF iterations:       14; SZ iterations:     14

Date: 1992/04/20; Stress:  1; Step:   203; Simulation step:17735
                  MF iterations:       18; SZ iterations:     18

Date: 1992/04/21; Stress:  1; Step:   204; Simulation step:17736
                  MF iterations:       12; SZ iterations:     12

Date: 1992/04/22; Stress:  1; Step:   205; Simulation step:17737
                  MF iterations:       12; SZ iterations:     12

Date: 1992/04/23; Stress:  1; Step:   206; Simulation step:17738
                  MF iterations:       17; SZ iterations:     17

Date: 1992/04/24; Stress:  1; Step:   207; Simulation step:17739
                  MF iterations:       18; SZ iterations:     18

Date: 1992/04/25; Stress:  1; Step:   208; Simulation step:17740
                  MF iterations:       15; SZ iterations:     15

Date: 1992/04/26; Stress:  1; Step:   209; Simulation step:17741
                  MF iterations:       13; SZ iterations:     13

Date: 1992/04/27; Stress:  1; Step:   210; Simulation step:17742
                  MF iterations:       15; SZ iterations:     15

Date: 1992/04/28; Stress:  1; Step:   211; Simulation step:17743
                  MF iterations:       14; SZ iterations:     14

Date: 1992/04/29; Stress:  1; Step:   212; Simulation step:17744
                  MF iterations:       13; SZ iterations:     13

Date: 1992/04/30; Stress:  1; Step:   213; Simulation step:17745
                  MF iterations:       11; SZ iterations:     11

Date: 1992/05/01; Stress:  1; Step:   214; Simulation step:17746
                  MF iterations:       15; SZ iterations:     15

Date: 1992/05/02; Stress:  1; Step:   215; Simulation step:17747
                  MF iterations:       15; SZ iterations:     15

Date: 1992/05/03; Stress:  1; Step:   216; Simulation step:17748
                  MF iterations:       12; SZ iterations:     12

Date: 1992/05/04; Stress:  1; Step:   217; Simulation step:17749
                  MF iterations:       12; SZ iterations:     12

Date: 1992/05/05; Stress:  1; Step:   218; Simulation step:17750
                  MF iterations:       13; SZ iterations:     13

Date: 1992/05/06; Stress:  1; Step:   219; Simulation step:17751
                  MF iterations:       12; SZ iterations:     12

Date: 1992/05/07; Stress:  1; Step:   220; Simulation step:17752
                  MF iterations:       13; SZ iterations:     13

Date: 1992/05/08; Stress:  1; Step:   221; Simulation step:17753
                  MF iterations:       30; SZ iterations:     30

Date: 1992/05/09; Stress:  1; Step:   222; Simulation step:17754
                  MF iterations:        9; SZ iterations:      9

Date: 1992/05/10; Stress:  1; Step:   223; Simulation step:17755
                  MF iterations:        9; SZ iterations:      9

Date: 1992/05/11; Stress:  1; Step:   224; Simulation step:17756
                  MF iterations:        9; SZ iterations:      9

Date: 1992/05/12; Stress:  1; Step:   225; Simulation step:17757
                  MF iterations:       10; SZ iterations:     10

Date: 1992/05/13; Stress:  1; Step:   226; Simulation step:17758
                  MF iterations:        8; SZ iterations:      8

Date: 1992/05/14; Stress:  1; Step:   227; Simulation step:17759
                  MF iterations:        8; SZ iterations:      8

Date: 1992/05/15; Stress:  1; Step:   228; Simulation step:17760
                  MF iterations:        6; SZ iterations:      6

Date: 1992/05/16; Stress:  1; Step:   229; Simulation step:17761
                  MF iterations:        5; SZ iterations:      5

Date: 1992/05/17; Stress:  1; Step:   230; Simulation step:17762
                  MF iterations:        6; SZ iterations:      6

Date: 1992/05/18; Stress:  1; Step:   231; Simulation step:17763
                  MF iterations:        5; SZ iterations:      5

Date: 1992/05/19; Stress:  1; Step:   232; Simulation step:17764
                  MF iterations:        4; SZ iterations:      4

Date: 1992/05/20; Stress:  1; Step:   233; Simulation step:17765
                  MF iterations:        5; SZ iterations:      5

Date: 1992/05/21; Stress:  1; Step:   234; Simulation step:17766
                  MF iterations:        5; SZ iterations:      5

Date: 1992/05/22; Stress:  1; Step:   235; Simulation step:17767
                  MF iterations:        5; SZ iterations:      5

Date: 1992/05/23; Stress:  1; Step:   236; Simulation step:17768
                  MF iterations:        5; SZ iterations:      5

Date: 1992/05/24; Stress:  1; Step:   237; Simulation step:17769
                  MF iterations:        6; SZ iterations:      6

Date: 1992/05/25; Stress:  1; Step:   238; Simulation step:17770
                  MF iterations:        5; SZ iterations:      5

Date: 1992/05/26; Stress:  1; Step:   239; Simulation step:17771
                  MF iterations:        6; SZ iterations:      6

Date: 1992/05/27; Stress:  1; Step:   240; Simulation step:17772
                  MF iterations:        4; SZ iterations:      4

Date: 1992/05/28; Stress:  1; Step:   241; Simulation step:17773
                  MF iterations:        6; SZ iterations:      6

Date: 1992/05/29; Stress:  1; Step:   242; Simulation step:17774
                  MF iterations:        6; SZ iterations:      6

Date: 1992/05/30; Stress:  1; Step:   243; Simulation step:17775
                  MF iterations:        6; SZ iterations:      6

Date: 1992/05/31; Stress:  1; Step:   244; Simulation step:17776
                  MF iterations:       10; SZ iterations:     10

Date: 1992/06/01; Stress:  1; Step:   245; Simulation step:17777
                  MF iterations:       14; SZ iterations:     14

Date: 1992/06/02; Stress:  1; Step:   246; Simulation step:17778
                  MF iterations:        6; SZ iterations:      6

Date: 1992/06/03; Stress:  1; Step:   247; Simulation step:17779
                  MF iterations:        6; SZ iterations:      6

Date: 1992/06/04; Stress:  1; Step:   248; Simulation step:17780
                  MF iterations:        6; SZ iterations:      6

Date: 1992/06/05; Stress:  1; Step:   249; Simulation step:17781
                  MF iterations:        9; SZ iterations:      9

Date: 1992/06/06; Stress:  1; Step:   250; Simulation step:17782
                  MF iterations:       50; SZ iterations:     50

Date: 1992/06/07; Stress:  1; Step:   251; Simulation step:17783
                  MF iterations:       19; SZ iterations:     19

Date: 1992/06/08; Stress:  1; Step:   252; Simulation step:17784
                  MF iterations:       70; SZ iterations:     70

Date: 1992/06/09; Stress:  1; Step:   253; Simulation step:17785
                  MF iterations:       12; SZ iterations:     12

Date: 1992/06/10; Stress:  1; Step:   254; Simulation step:17786
                  MF iterations:        5; SZ iterations:      5

Date: 1992/06/11; Stress:  1; Step:   255; Simulation step:17787
                  MF iterations:       40; SZ iterations:     40

Date: 1992/06/12; Stress:  1; Step:   256; Simulation step:17788
                  MF iterations:        9; SZ iterations:      9

Date: 1992/06/13; Stress:  1; Step:   257; Simulation step:17789
                  MF iterations:        3; SZ iterations:      3

Date: 1992/06/14; Stress:  1; Step:   258; Simulation step:17790
                  MF iterations:        3; SZ iterations:      3

Date: 1992/06/15; Stress:  1; Step:   259; Simulation step:17791
                  MF iterations:        3; SZ iterations:      3

Date: 1992/06/16; Stress:  1; Step:   260; Simulation step:17792
                  MF iterations:        3; SZ iterations:      3

Date: 1992/06/17; Stress:  1; Step:   261; Simulation step:17793
                  MF iterations:        3; SZ iterations:      3

Date: 1992/06/18; Stress:  1; Step:   262; Simulation step:17794
                  MF iterations:        5; SZ iterations:      5

Date: 1992/06/19; Stress:  1; Step:   263; Simulation step:17795
                  MF iterations:        5; SZ iterations:      5

Date: 1992/06/20; Stress:  1; Step:   264; Simulation step:17796
                  MF iterations:        6; SZ iterations:      6

Date: 1992/06/21; Stress:  1; Step:   265; Simulation step:17797
                  MF iterations:       10; SZ iterations:     10

Date: 1992/06/22; Stress:  1; Step:   266; Simulation step:17798
                  MF iterations:       79; SZ iterations:     79

Date: 1992/06/23; Stress:  1; Step:   267; Simulation step:17799
                  MF iterations:        8; SZ iterations:      8

Date: 1992/06/24; Stress:  1; Step:   268; Simulation step:17800
                  MF iterations:        4; SZ iterations:      4

Date: 1992/06/25; Stress:  1; Step:   269; Simulation step:17801
                  MF iterations:        8; SZ iterations:      8

Date: 1992/06/26; Stress:  1; Step:   270; Simulation step:17802
                  MF iterations:       10; SZ iterations:     10

Date: 1992/06/27; Stress:  1; Step:   271; Simulation step:17803
                  MF iterations:       19; SZ iterations:     19

Date: 1992/06/28; Stress:  1; Step:   272; Simulation step:17804
                  MF iterations:       13; SZ iterations:     13

Date: 1992/06/29; Stress:  1; Step:   273; Simulation step:17805
                  MF iterations:       10; SZ iterations:     10

Date: 1992/06/30; Stress:  1; Step:   274; Simulation step:17806
                  MF iterations:       12; SZ iterations:     12

Date: 1992/07/01; Stress:  1; Step:   275; Simulation step:17807
                  MF iterations:       10; SZ iterations:     10

Date: 1992/07/02; Stress:  1; Step:   276; Simulation step:17808
                  MF iterations:       15; SZ iterations:     15

Date: 1992/07/03; Stress:  1; Step:   277; Simulation step:17809
                  MF iterations:       15; SZ iterations:     15

Date: 1992/07/04; Stress:  1; Step:   278; Simulation step:17810
                  MF iterations:       14; SZ iterations:     14

Date: 1992/07/05; Stress:  1; Step:   279; Simulation step:17811
                  MF iterations:       18; SZ iterations:     18

Date: 1992/07/06; Stress:  1; Step:   280; Simulation step:17812
                  MF iterations:        8; SZ iterations:      8

Date: 1992/07/07; Stress:  1; Step:   281; Simulation step:17813
                  MF iterations:       15; SZ iterations:     15

Date: 1992/07/08; Stress:  1; Step:   282; Simulation step:17814
                  MF iterations:       13; SZ iterations:     13

Date: 1992/07/09; Stress:  1; Step:   283; Simulation step:17815
                  MF iterations:       36; SZ iterations:     36

Date: 1992/07/10; Stress:  1; Step:   284; Simulation step:17816
                  MF iterations:       12; SZ iterations:     12

Date: 1992/07/11; Stress:  1; Step:   285; Simulation step:17817
                  MF iterations:       18; SZ iterations:     18

Date: 1992/07/12; Stress:  1; Step:   286; Simulation step:17818
                  MF iterations:       17; SZ iterations:     17

Date: 1992/07/13; Stress:  1; Step:   287; Simulation step:17819
                  MF iterations:       11; SZ iterations:     11

Date: 1992/07/14; Stress:  1; Step:   288; Simulation step:17820
                  MF iterations:       13; SZ iterations:     13

Date: 1992/07/15; Stress:  1; Step:   289; Simulation step:17821
                  MF iterations:       10; SZ iterations:     10

Date: 1992/07/16; Stress:  1; Step:   290; Simulation step:17822
                  MF iterations:       14; SZ iterations:     14

Date: 1992/07/17; Stress:  1; Step:   291; Simulation step:17823
                  MF iterations:       15; SZ iterations:     15

Date: 1992/07/18; Stress:  1; Step:   292; Simulation step:17824
                  MF iterations:       23; SZ iterations:     23

Date: 1992/07/19; Stress:  1; Step:   293; Simulation step:17825
                  MF iterations:       15; SZ iterations:     15

Date: 1992/07/20; Stress:  1; Step:   294; Simulation step:17826
                  MF iterations:       14; SZ iterations:     14

Date: 1992/07/21; Stress:  1; Step:   295; Simulation step:17827
                  MF iterations:        8; SZ iterations:      8

Date: 1992/07/22; Stress:  1; Step:   296; Simulation step:17828
                  MF iterations:       14; SZ iterations:     14

Date: 1992/07/23; Stress:  1; Step:   297; Simulation step:17829
                  MF iterations:       59; SZ iterations:     59

Date: 1992/07/24; Stress:  1; Step:   298; Simulation step:17830
                  MF iterations:        7; SZ iterations:      7

Date: 1992/07/25; Stress:  1; Step:   299; Simulation step:17831
                  MF iterations:        8; SZ iterations:      8

Date: 1992/07/26; Stress:  1; Step:   300; Simulation step:17832
                  MF iterations:       16; SZ iterations:     16

Date: 1992/07/27; Stress:  1; Step:   301; Simulation step:17833
                  MF iterations:       27; SZ iterations:     27

Date: 1992/07/28; Stress:  1; Step:   302; Simulation step:17834
                  MF iterations:        8; SZ iterations:      8

Date: 1992/07/29; Stress:  1; Step:   303; Simulation step:17835
                  MF iterations:        5; SZ iterations:      5

Date: 1992/07/30; Stress:  1; Step:   304; Simulation step:17836
                  MF iterations:       12; SZ iterations:     12

Date: 1992/07/31; Stress:  1; Step:   305; Simulation step:17837
                  MF iterations:       11; SZ iterations:     11

Date: 1992/08/01; Stress:  1; Step:   306; Simulation step:17838
                  MF iterations:      126; SZ iterations:    126

Date: 1992/08/02; Stress:  1; Step:   307; Simulation step:17839
                  MF iterations:        4; SZ iterations:      4

Date: 1992/08/03; Stress:  1; Step:   308; Simulation step:17840
                  MF iterations:        6; SZ iterations:      6

Date: 1992/08/04; Stress:  1; Step:   309; Simulation step:17841
                  MF iterations:        5; SZ iterations:      5

Date: 1992/08/05; Stress:  1; Step:   310; Simulation step:17842
                  MF iterations:        7; SZ iterations:      7

Date: 1992/08/06; Stress:  1; Step:   311; Simulation step:17843
                  MF iterations:       40; SZ iterations:     40

Date: 1992/08/07; Stress:  1; Step:   312; Simulation step:17844
                  MF iterations:        6; SZ iterations:      6

Date: 1992/08/08; Stress:  1; Step:   313; Simulation step:17845
                  MF iterations:       19; SZ iterations:     19

Date: 1992/08/09; Stress:  1; Step:   314; Simulation step:17846
                  MF iterations:      108; SZ iterations:    108

Date: 1992/08/10; Stress:  1; Step:   315; Simulation step:17847
                  MF iterations:        4; SZ iterations:      4

Date: 1992/08/11; Stress:  1; Step:   316; Simulation step:17848
                  MF iterations:       11; SZ iterations:     11

Date: 1992/08/12; Stress:  1; Step:   317; Simulation step:17849
                  MF iterations:      117; SZ iterations:    117

Date: 1992/08/13; Stress:  1; Step:   318; Simulation step:17850
                  MF iterations:        4; SZ iterations:      4

Date: 1992/08/14; Stress:  1; Step:   319; Simulation step:17851
                  MF iterations:        4; SZ iterations:      4

Date: 1992/08/15; Stress:  1; Step:   320; Simulation step:17852
                  MF iterations:       23; SZ iterations:     23

Date: 1992/08/16; Stress:  1; Step:   321; Simulation step:17853
                  MF iterations:        4; SZ iterations:      4

Date: 1992/08/17; Stress:  1; Step:   322; Simulation step:17854
                  MF iterations:      107; SZ iterations:    107

Date: 1992/08/18; Stress:  1; Step:   323; Simulation step:17855
                  MF iterations:        2; SZ iterations:      2

Date: 1992/08/19; Stress:  1; Step:   324; Simulation step:17856
                  MF iterations:        4; SZ iterations:      4

Date: 1992/08/20; Stress:  1; Step:   325; Simulation step:17857
                  MF iterations:        3; SZ iterations:      3

Date: 1992/08/21; Stress:  1; Step:   326; Simulation step:17858
                  MF iterations:        7; SZ iterations:      7

Date: 1992/08/22; Stress:  1; Step:   327; Simulation step:17859
                  MF iterations:        9; SZ iterations:      9

Date: 1992/08/23; Stress:  1; Step:   328; Simulation step:17860
                  MF iterations:      120; SZ iterations:    120

Date: 1992/08/24; Stress:  1; Step:   329; Simulation step:17861
                  MF iterations:       13; SZ iterations:     13

Date: 1992/08/25; Stress:  1; Step:   330; Simulation step:17862
                  MF iterations:        4; SZ iterations:      4

Date: 1992/08/26; Stress:  1; Step:   331; Simulation step:17863
                  MF iterations:        4; SZ iterations:      4

Date: 1992/08/27; Stress:  1; Step:   332; Simulation step:17864
                  MF iterations:        4; SZ iterations:      4

Date: 1992/08/28; Stress:  1; Step:   333; Simulation step:17865
                  MF iterations:        4; SZ iterations:      4

Date: 1992/08/29; Stress:  1; Step:   334; Simulation step:17866
                  MF iterations:        5; SZ iterations:      5

Date: 1992/08/30; Stress:  1; Step:   335; Simulation step:17867
                  MF iterations:        2; SZ iterations:      2

Date: 1992/08/31; Stress:  1; Step:   336; Simulation step:17868
                  MF iterations:       10; SZ iterations:     10

Date: 1992/09/01; Stress:  1; Step:   337; Simulation step:17869
                  MF iterations:       16; SZ iterations:     16

Date: 1992/09/02; Stress:  1; Step:   338; Simulation step:17870
                  MF iterations:       39; SZ iterations:     39

Date: 1992/09/03; Stress:  1; Step:   339; Simulation step:17871
                  MF iterations:       14; SZ iterations:     14

Date: 1992/09/04; Stress:  1; Step:   340; Simulation step:17872
                  MF iterations:        4; SZ iterations:      4

Date: 1992/09/05; Stress:  1; Step:   341; Simulation step:17873
                  MF iterations:        4; SZ iterations:      4

Date: 1992/09/06; Stress:  1; Step:   342; Simulation step:17874
                  MF iterations:        9; SZ iterations:      9

Date: 1992/09/07; Stress:  1; Step:   343; Simulation step:17875
                  MF iterations:        3; SZ iterations:      3

Date: 1992/09/08; Stress:  1; Step:   344; Simulation step:17876
                  MF iterations:       14; SZ iterations:     14

Date: 1992/09/09; Stress:  1; Step:   345; Simulation step:17877
                  MF iterations:       13; SZ iterations:     13

Date: 1992/09/10; Stress:  1; Step:   346; Simulation step:17878
                  MF iterations:       25; SZ iterations:     25

Date: 1992/09/11; Stress:  1; Step:   347; Simulation step:17879
                  MF iterations:       27; SZ iterations:     27

Date: 1992/09/12; Stress:  1; Step:   348; Simulation step:17880
                  MF iterations:        5; SZ iterations:      5

Date: 1992/09/13; Stress:  1; Step:   349; Simulation step:17881
                  MF iterations:        4; SZ iterations:      4

Date: 1992/09/14; Stress:  1; Step:   350; Simulation step:17882
                  MF iterations:       14; SZ iterations:     14

Date: 1992/09/15; Stress:  1; Step:   351; Simulation step:17883
                  MF iterations:        2; SZ iterations:      2

Date: 1992/09/16; Stress:  1; Step:   352; Simulation step:17884
                  MF iterations:        5; SZ iterations:      5

Date: 1992/09/17; Stress:  1; Step:   353; Simulation step:17885
                  MF iterations:        4; SZ iterations:      4

Date: 1992/09/18; Stress:  1; Step:   354; Simulation step:17886
                  MF iterations:       13; SZ iterations:     13

Date: 1992/09/19; Stress:  1; Step:   355; Simulation step:17887
                  MF iterations:       10; SZ iterations:     10

Date: 1992/09/20; Stress:  1; Step:   356; Simulation step:17888
                  MF iterations:        3; SZ iterations:      3

Date: 1992/09/21; Stress:  1; Step:   357; Simulation step:17889
                  MF iterations:       68; SZ iterations:     68

Date: 1992/09/22; Stress:  1; Step:   358; Simulation step:17890
                  MF iterations:       10; SZ iterations:     10

Date: 1992/09/23; Stress:  1; Step:   359; Simulation step:17891
                  MF iterations:        2; SZ iterations:      2

Date: 1992/09/24; Stress:  1; Step:   360; Simulation step:17892
                  MF iterations:        4; SZ iterations:      4

Date: 1992/09/25; Stress:  1; Step:   361; Simulation step:17893
                  MF iterations:       14; SZ iterations:     14

Date: 1992/09/26; Stress:  1; Step:   362; Simulation step:17894
                  MF iterations:       38; SZ iterations:     38

Date: 1992/09/27; Stress:  1; Step:   363; Simulation step:17895
                  MF iterations:       92; SZ iterations:     92

Date: 1992/09/28; Stress:  1; Step:   364; Simulation step:17896
                  MF iterations:        4; SZ iterations:      4

Date: 1992/09/29; Stress:  1; Step:   365; Simulation step:17897
                  MF iterations:        6; SZ iterations:      6

Date: 1992/09/30; Stress:  1; Step:   366; Simulation step:17898
                  MF iterations:        7; SZ iterations:      7

Date: 1992/10/01; Stress:  1; Step:   367; Simulation step:17899
                  MF iterations:        6; SZ iterations:      6

Date: 1992/10/02; Stress:  1; Step:   368; Simulation step:17900
                  MF iterations:        6; SZ iterations:      6

Date: 1992/10/03; Stress:  1; Step:   369; Simulation step:17901
                  MF iterations:        8; SZ iterations:      8

Date: 1992/10/04; Stress:  1; Step:   370; Simulation step:17902
                  MF iterations:       23; SZ iterations:     23

Date: 1992/10/05; Stress:  1; Step:   371; Simulation step:17903
                  MF iterations:       22; SZ iterations:     22

Date: 1992/10/06; Stress:  1; Step:   372; Simulation step:17904
                  MF iterations:       34; SZ iterations:     34

Date: 1992/10/07; Stress:  1; Step:   373; Simulation step:17905
                  MF iterations:      146; SZ iterations:    146

Date: 1992/10/08; Stress:  1; Step:   374; Simulation step:17906
                  MF iterations:        5; SZ iterations:      5

Date: 1992/10/09; Stress:  1; Step:   375; Simulation step:17907
                  MF iterations:       11; SZ iterations:     11

Date: 1992/10/10; Stress:  1; Step:   376; Simulation step:17908
                  MF iterations:        4; SZ iterations:      4

Date: 1992/10/11; Stress:  1; Step:   377; Simulation step:17909
                  MF iterations:        5; SZ iterations:      5

Date: 1992/10/12; Stress:  1; Step:   378; Simulation step:17910
                  MF iterations:      103; SZ iterations:    103

Date: 1992/10/13; Stress:  1; Step:   379; Simulation step:17911
                  MF iterations:        4; SZ iterations:      4

Date: 1992/10/14; Stress:  1; Step:   380; Simulation step:17912
                  MF iterations:        6; SZ iterations:      6

Date: 1992/10/15; Stress:  1; Step:   381; Simulation step:17913
                  MF iterations:        4; SZ iterations:      4

Date: 1992/10/16; Stress:  1; Step:   382; Simulation step:17914
                  MF iterations:        7; SZ iterations:      7

Date: 1992/10/17; Stress:  1; Step:   383; Simulation step:17915
                  MF iterations:        4; SZ iterations:      4

Date: 1992/10/18; Stress:  1; Step:   384; Simulation step:17916
                  MF iterations:        8; SZ iterations:      8

Date: 1992/10/19; Stress:  1; Step:   385; Simulation step:17917
                  MF iterations:       25; SZ iterations:     25

Date: 1992/10/20; Stress:  1; Step:   386; Simulation step:17918
                  MF iterations:       11; SZ iterations:     11

Date: 1992/10/21; Stress:  1; Step:   387; Simulation step:17919
                  MF iterations:       14; SZ iterations:     14

Date: 1992/10/22; Stress:  1; Step:   388; Simulation step:17920
                  MF iterations:       64; SZ iterations:     64

Date: 1992/10/23; Stress:  1; Step:   389; Simulation step:17921
                  MF iterations:       16; SZ iterations:     16

Date: 1992/10/24; Stress:  1; Step:   390; Simulation step:17922
                  MF iterations:       12; SZ iterations:     12

Date: 1992/10/25; Stress:  1; Step:   391; Simulation step:17923
                  MF iterations:       14; SZ iterations:     14

Date: 1992/10/26; Stress:  1; Step:   392; Simulation step:17924
                  MF iterations:       18; SZ iterations:     18

Date: 1992/10/27; Stress:  1; Step:   393; Simulation step:17925
                  MF iterations:        8; SZ iterations:      8

Date: 1992/10/28; Stress:  1; Step:   394; Simulation step:17926
                  MF iterations:       18; SZ iterations:     18

Date: 1992/10/29; Stress:  1; Step:   395; Simulation step:17927
                  MF iterations:       10; SZ iterations:     10

Date: 1992/10/30; Stress:  1; Step:   396; Simulation step:17928
                  MF iterations:       43; SZ iterations:     43

Date: 1992/10/31; Stress:  1; Step:   397; Simulation step:17929
                  MF iterations:        6; SZ iterations:      6

Date: 1992/11/01; Stress:  1; Step:   398; Simulation step:17930
                  MF iterations:       56; SZ iterations:     56

Date: 1992/11/02; Stress:  1; Step:   399; Simulation step:17931
                  MF iterations:       47; SZ iterations:     47

Date: 1992/11/03; Stress:  1; Step:   400; Simulation step:17932
                  MF iterations:       13; SZ iterations:     13

Date: 1992/11/04; Stress:  1; Step:   401; Simulation step:17933
                  MF iterations:       11; SZ iterations:     11

Date: 1992/11/05; Stress:  1; Step:   402; Simulation step:17934
                  MF iterations:       32; SZ iterations:     32

Date: 1992/11/06; Stress:  1; Step:   403; Simulation step:17935
                  MF iterations:       11; SZ iterations:     11

Date: 1992/11/07; Stress:  1; Step:   404; Simulation step:17936
                  MF iterations:       32; SZ iterations:     32

Date: 1992/11/08; Stress:  1; Step:   405; Simulation step:17937
                  MF iterations:        9; SZ iterations:      9

Date: 1992/11/09; Stress:  1; Step:   406; Simulation step:17938
                  MF iterations:        7; SZ iterations:      7

Date: 1992/11/10; Stress:  1; Step:   407; Simulation step:17939
                  MF iterations:       11; SZ iterations:     11

Date: 1992/11/11; Stress:  1; Step:   408; Simulation step:17940
                  MF iterations:        5; SZ iterations:      5

Date: 1992/11/12; Stress:  1; Step:   409; Simulation step:17941
                  MF iterations:       11; SZ iterations:     11

Date: 1992/11/13; Stress:  1; Step:   410; Simulation step:17942
                  MF iterations:       10; SZ iterations:     10

Date: 1992/11/14; Stress:  1; Step:   411; Simulation step:17943
                  MF iterations:       60; SZ iterations:     60

Date: 1992/11/15; Stress:  1; Step:   412; Simulation step:17944
                  MF iterations:        6; SZ iterations:      6

Date: 1992/11/16; Stress:  1; Step:   413; Simulation step:17945
                  MF iterations:        6; SZ iterations:      6

Date: 1992/11/17; Stress:  1; Step:   414; Simulation step:17946
                  MF iterations:       20; SZ iterations:     20

Date: 1992/11/18; Stress:  1; Step:   415; Simulation step:17947
                  MF iterations:        3; SZ iterations:      3

Date: 1992/11/19; Stress:  1; Step:   416; Simulation step:17948
                  MF iterations:        3; SZ iterations:      3

Date: 1992/11/20; Stress:  1; Step:   417; Simulation step:17949
                  MF iterations:       11; SZ iterations:     11

Date: 1992/11/21; Stress:  1; Step:   418; Simulation step:17950
                  MF iterations:       10; SZ iterations:     10

Date: 1992/11/22; Stress:  1; Step:   419; Simulation step:17951
                  MF iterations:        3; SZ iterations:      3

Date: 1992/11/23; Stress:  1; Step:   420; Simulation step:17952
                  MF iterations:        3; SZ iterations:      3

Date: 1992/11/24; Stress:  1; Step:   421; Simulation step:17953
                  MF iterations:        9; SZ iterations:      9

Date: 1992/11/25; Stress:  1; Step:   422; Simulation step:17954
                  MF iterations:        6; SZ iterations:      6

Date: 1992/11/26; Stress:  1; Step:   423; Simulation step:17955
                  MF iterations:        4; SZ iterations:      4

Date: 1992/11/27; Stress:  1; Step:   424; Simulation step:17956
                  MF iterations:        7; SZ iterations:      7

Date: 1992/11/28; Stress:  1; Step:   425; Simulation step:17957
                  MF iterations:        5; SZ iterations:      5

Date: 1992/11/29; Stress:  1; Step:   426; Simulation step:17958
                  MF iterations:        3; SZ iterations:      3

Date: 1992/11/30; Stress:  1; Step:   427; Simulation step:17959
                  MF iterations:        3; SZ iterations:      3

Date: 1992/12/01; Stress:  1; Step:   428; Simulation step:17960
                  MF iterations:        3; SZ iterations:      3

Date: 1992/12/02; Stress:  1; Step:   429; Simulation step:17961
                  MF iterations:        9; SZ iterations:      9

Date: 1992/12/03; Stress:  1; Step:   430; Simulation step:17962
                  MF iterations:       17; SZ iterations:     17

Date: 1992/12/04; Stress:  1; Step:   431; Simulation step:17963
                  MF iterations:      161; SZ iterations:    161

Date: 1992/12/05; Stress:  1; Step:   432; Simulation step:17964
                  MF iterations:        6; SZ iterations:      6

Date: 1992/12/06; Stress:  1; Step:   433; Simulation step:17965
                  MF iterations:       25; SZ iterations:     25

Date: 1992/12/07; Stress:  1; Step:   434; Simulation step:17966
                  MF iterations:        9; SZ iterations:      9

Date: 1992/12/08; Stress:  1; Step:   435; Simulation step:17967
                  MF iterations:        8; SZ iterations:      8

Date: 1992/12/09; Stress:  1; Step:   436; Simulation step:17968
                  MF iterations:        5; SZ iterations:      5

Date: 1992/12/10; Stress:  1; Step:   437; Simulation step:17969
                  MF iterations:       14; SZ iterations:     14

Date: 1992/12/11; Stress:  1; Step:   438; Simulation step:17970
                  MF iterations:       26; SZ iterations:     26

Date: 1992/12/12; Stress:  1; Step:   439; Simulation step:17971
                  MF iterations:        9; SZ iterations:      9

Date: 1992/12/13; Stress:  1; Step:   440; Simulation step:17972
                  MF iterations:        4; SZ iterations:      4

Date: 1992/12/14; Stress:  1; Step:   441; Simulation step:17973
                  MF iterations:       36; SZ iterations:     36

Date: 1992/12/15; Stress:  1; Step:   442; Simulation step:17974
                  MF iterations:        4; SZ iterations:      4

Date: 1992/12/16; Stress:  1; Step:   443; Simulation step:17975
                  MF iterations:        8; SZ iterations:      8

Date: 1992/12/17; Stress:  1; Step:   444; Simulation step:17976
                  MF iterations:        4; SZ iterations:      4

Date: 1992/12/18; Stress:  1; Step:   445; Simulation step:17977
                  MF iterations:        4; SZ iterations:      4

Date: 1992/12/19; Stress:  1; Step:   446; Simulation step:17978
                  MF iterations:        4; SZ iterations:      4

Date: 1992/12/20; Stress:  1; Step:   447; Simulation step:17979
                  MF iterations:        3; SZ iterations:      3

Date: 1992/12/21; Stress:  1; Step:   448; Simulation step:17980
                  MF iterations:        3; SZ iterations:      3

Date: 1992/12/22; Stress:  1; Step:   449; Simulation step:17981
                  MF iterations:        3; SZ iterations:      3

Date: 1992/12/23; Stress:  1; Step:   450; Simulation step:17982
                  MF iterations:        4; SZ iterations:      4

Date: 1992/12/24; Stress:  1; Step:   451; Simulation step:17983
                  MF iterations:        4; SZ iterations:      4

Date: 1992/12/25; Stress:  1; Step:   452; Simulation step:17984
                  MF iterations:        4; SZ iterations:      4

Date: 1992/12/26; Stress:  1; Step:   453; Simulation step:17985
                  MF iterations:        6; SZ iterations:      6

Date: 1992/12/27; Stress:  1; Step:   454; Simulation step:17986
                  MF iterations:        3; SZ iterations:      3

Date: 1992/12/28; Stress:  1; Step:   455; Simulation step:17987
                  MF iterations:        3; SZ iterations:      3

Date: 1992/12/29; Stress:  1; Step:   456; Simulation step:17988
                  MF iterations:       68; SZ iterations:     68

Date: 1992/12/30; Stress:  1; Step:   457; Simulation step:17989
                  MF iterations:       15; SZ iterations:     15

Date: 1992/12/31; Stress:  1; Step:   458; Simulation step:17990
                  MF iterations:        5; SZ iterations:      5

Date: 1993/01/01; Stress:  1; Step:   459; Simulation step:17991
                  MF iterations:       17; SZ iterations:     17

Date: 1993/01/02; Stress:  1; Step:   460; Simulation step:17992
                  MF iterations:        3; SZ iterations:      3

Date: 1993/01/03; Stress:  1; Step:   461; Simulation step:17993
                  MF iterations:        5; SZ iterations:      5

Date: 1993/01/04; Stress:  1; Step:   462; Simulation step:17994
                  MF iterations:       14; SZ iterations:     14

Date: 1993/01/05; Stress:  1; Step:   463; Simulation step:17995
                  MF iterations:        4; SZ iterations:      4

Date: 1993/01/06; Stress:  1; Step:   464; Simulation step:17996
                  MF iterations:        4; SZ iterations:      4

Date: 1993/01/07; Stress:  1; Step:   465; Simulation step:17997
                  MF iterations:       14; SZ iterations:     14

Date: 1993/01/08; Stress:  1; Step:   466; Simulation step:17998
                  MF iterations:        9; SZ iterations:      9

Date: 1993/01/09; Stress:  1; Step:   467; Simulation step:17999
                  MF iterations:        5; SZ iterations:      5

Date: 1993/01/10; Stress:  1; Step:   468; Simulation step:18000
                  MF iterations:       10; SZ iterations:     10

Date: 1993/01/11; Stress:  1; Step:   469; Simulation step:18001
                  MF iterations:        4; SZ iterations:      4

Date: 1993/01/12; Stress:  1; Step:   470; Simulation step:18002
                  MF iterations:        7; SZ iterations:      7

***TIME STEP FAILED TO CONVERGE - Date: 1993/01/13 number:     8

Date: 1993/01/13; Stress:  1; Step:   471; Simulation step:18003
                  MF iterations:      200; SZ iterations:    200

Date: 1993/01/14; Stress:  1; Step:   472; Simulation step:18004
                  MF iterations:       16; SZ iterations:     16

Date: 1993/01/15; Stress:  1; Step:   473; Simulation step:18005
                  MF iterations:      101; SZ iterations:    101

Date: 1993/01/16; Stress:  1; Step:   474; Simulation step:18006
                  MF iterations:        3; SZ iterations:      3

Date: 1993/01/17; Stress:  1; Step:   475; Simulation step:18007
                  MF iterations:        3; SZ iterations:      3

Date: 1993/01/18; Stress:  1; Step:   476; Simulation step:18008
                  MF iterations:       41; SZ iterations:     41

Date: 1993/01/19; Stress:  1; Step:   477; Simulation step:18009
                  MF iterations:      108; SZ iterations:    108

Date: 1993/01/20; Stress:  1; Step:   478; Simulation step:18010
                  MF iterations:        5; SZ iterations:      5

Date: 1993/01/21; Stress:  1; Step:   479; Simulation step:18011
                  MF iterations:        3; SZ iterations:      3

Date: 1993/01/22; Stress:  1; Step:   480; Simulation step:18012
                  MF iterations:        3; SZ iterations:      3

Date: 1993/01/23; Stress:  1; Step:   481; Simulation step:18013
                  MF iterations:        4; SZ iterations:      4

Date: 1993/01/24; Stress:  1; Step:   482; Simulation step:18014
                  MF iterations:       17; SZ iterations:     17

Date: 1993/01/25; Stress:  1; Step:   483; Simulation step:18015
                  MF iterations:        3; SZ iterations:      3

Date: 1993/01/26; Stress:  1; Step:   484; Simulation step:18016
                  MF iterations:        4; SZ iterations:      4

Date: 1993/01/27; Stress:  1; Step:   485; Simulation step:18017
                  MF iterations:        3; SZ iterations:      3

Date: 1993/01/28; Stress:  1; Step:   486; Simulation step:18018
                  MF iterations:        3; SZ iterations:      3

Date: 1993/01/29; Stress:  1; Step:   487; Simulation step:18019
                  MF iterations:        4; SZ iterations:      4

Date: 1993/01/30; Stress:  1; Step:   488; Simulation step:18020
                  MF iterations:        3; SZ iterations:      3

Date: 1993/01/31; Stress:  1; Step:   489; Simulation step:18021
                  MF iterations:        3; SZ iterations:      3

Date: 1993/02/01; Stress:  1; Step:   490; Simulation step:18022
                  MF iterations:        3; SZ iterations:      3

Date: 1993/02/02; Stress:  1; Step:   491; Simulation step:18023
                  MF iterations:        5; SZ iterations:      5

Date: 1993/02/03; Stress:  1; Step:   492; Simulation step:18024
                  MF iterations:        3; SZ iterations:      3

Date: 1993/02/04; Stress:  1; Step:   493; Simulation step:18025
                  MF iterations:        3; SZ iterations:      3

Date: 1993/02/05; Stress:  1; Step:   494; Simulation step:18026
                  MF iterations:        4; SZ iterations:      4

Date: 1993/02/06; Stress:  1; Step:   495; Simulation step:18027
                  MF iterations:        6; SZ iterations:      6

Date: 1993/02/07; Stress:  1; Step:   496; Simulation step:18028
                  MF iterations:        3; SZ iterations:      3

Date: 1993/02/08; Stress:  1; Step:   497; Simulation step:18029
                  MF iterations:       12; SZ iterations:     12

Date: 1993/02/09; Stress:  1; Step:   498; Simulation step:18030
                  MF iterations:        4; SZ iterations:      4

Date: 1993/02/10; Stress:  1; Step:   499; Simulation step:18031
                  MF iterations:       21; SZ iterations:     21

Date: 1993/02/11; Stress:  1; Step:   500; Simulation step:18032
                  MF iterations:       17; SZ iterations:     17

Date: 1993/02/12; Stress:  1; Step:   501; Simulation step:18033
                  MF iterations:        4; SZ iterations:      4

Date: 1993/02/13; Stress:  1; Step:   502; Simulation step:18034
                  MF iterations:        3; SZ iterations:      3

Date: 1993/02/14; Stress:  1; Step:   503; Simulation step:18035
                  MF iterations:        6; SZ iterations:      6

Date: 1993/02/15; Stress:  1; Step:   504; Simulation step:18036
                  MF iterations:        7; SZ iterations:      7

Date: 1993/02/16; Stress:  1; Step:   505; Simulation step:18037
                  MF iterations:        3; SZ iterations:      3

Date: 1993/02/17; Stress:  1; Step:   506; Simulation step:18038
                  MF iterations:        3; SZ iterations:      3

Date: 1993/02/18; Stress:  1; Step:   507; Simulation step:18039
                  MF iterations:       10; SZ iterations:     10

Date: 1993/02/19; Stress:  1; Step:   508; Simulation step:18040
                  MF iterations:      126; SZ iterations:    126

Date: 1993/02/20; Stress:  1; Step:   509; Simulation step:18041
                  MF iterations:      100; SZ iterations:    100

Date: 1993/02/21; Stress:  1; Step:   510; Simulation step:18042
                  MF iterations:        3; SZ iterations:      3

Date: 1993/02/22; Stress:  1; Step:   511; Simulation step:18043
                  MF iterations:       12; SZ iterations:     12

Date: 1993/02/23; Stress:  1; Step:   512; Simulation step:18044
                  MF iterations:       28; SZ iterations:     28

Date: 1993/02/24; Stress:  1; Step:   513; Simulation step:18045
                  MF iterations:       53; SZ iterations:     53

Date: 1993/02/25; Stress:  1; Step:   514; Simulation step:18046
                  MF iterations:        3; SZ iterations:      3

Date: 1993/02/26; Stress:  1; Step:   515; Simulation step:18047
                  MF iterations:       14; SZ iterations:     14

Date: 1993/02/27; Stress:  1; Step:   516; Simulation step:18048
                  MF iterations:       23; SZ iterations:     23

Date: 1993/02/28; Stress:  1; Step:   517; Simulation step:18049
                  MF iterations:       79; SZ iterations:     79

Date: 1993/03/01; Stress:  1; Step:   518; Simulation step:18050
                  MF iterations:        3; SZ iterations:      3

Date: 1993/03/02; Stress:  1; Step:   519; Simulation step:18051
                  MF iterations:        3; SZ iterations:      3

Date: 1993/03/03; Stress:  1; Step:   520; Simulation step:18052
                  MF iterations:        3; SZ iterations:      3

Date: 1993/03/04; Stress:  1; Step:   521; Simulation step:18053
                  MF iterations:        3; SZ iterations:      3

Date: 1993/03/05; Stress:  1; Step:   522; Simulation step:18054
                  MF iterations:        3; SZ iterations:      3

Date: 1993/03/06; Stress:  1; Step:   523; Simulation step:18055
                  MF iterations:        3; SZ iterations:      3

Date: 1993/03/07; Stress:  1; Step:   524; Simulation step:18056
                  MF iterations:        3; SZ iterations:      3

Date: 1993/03/08; Stress:  1; Step:   525; Simulation step:18057
                  MF iterations:        4; SZ iterations:      4

Date: 1993/03/09; Stress:  1; Step:   526; Simulation step:18058
                  MF iterations:        4; SZ iterations:      4

Date: 1993/03/10; Stress:  1; Step:   527; Simulation step:18059
                  MF iterations:        5; SZ iterations:      5

Date: 1993/03/11; Stress:  1; Step:   528; Simulation step:18060
                  MF iterations:       23; SZ iterations:     23

Date: 1993/03/12; Stress:  1; Step:   529; Simulation step:18061
                  MF iterations:       10; SZ iterations:     10

Date: 1993/03/13; Stress:  1; Step:   530; Simulation step:18062
                  MF iterations:       10; SZ iterations:     10

Date: 1993/03/14; Stress:  1; Step:   531; Simulation step:18063
                  MF iterations:       10; SZ iterations:     10

Date: 1993/03/15; Stress:  1; Step:   532; Simulation step:18064
                  MF iterations:        9; SZ iterations:      9

Date: 1993/03/16; Stress:  1; Step:   533; Simulation step:18065
                  MF iterations:        9; SZ iterations:      9

Date: 1993/03/17; Stress:  1; Step:   534; Simulation step:18066
                  MF iterations:        9; SZ iterations:      9

Date: 1993/03/18; Stress:  1; Step:   535; Simulation step:18067
                  MF iterations:        4; SZ iterations:      4

Date: 1993/03/19; Stress:  1; Step:   536; Simulation step:18068
                  MF iterations:        9; SZ iterations:      9

Date: 1993/03/20; Stress:  1; Step:   537; Simulation step:18069
                  MF iterations:       11; SZ iterations:     11

Date: 1993/03/21; Stress:  1; Step:   538; Simulation step:18070
                  MF iterations:        9; SZ iterations:      9

Date: 1993/03/22; Stress:  1; Step:   539; Simulation step:18071
                  MF iterations:       11; SZ iterations:     11

Date: 1993/03/23; Stress:  1; Step:   540; Simulation step:18072
                  MF iterations:       14; SZ iterations:     14

Date: 1993/03/24; Stress:  1; Step:   541; Simulation step:18073
                  MF iterations:        5; SZ iterations:      5

Date: 1993/03/25; Stress:  1; Step:   542; Simulation step:18074
                  MF iterations:        3; SZ iterations:      3

Date: 1993/03/26; Stress:  1; Step:   543; Simulation step:18075
                  MF iterations:        4; SZ iterations:      4

Date: 1993/03/27; Stress:  1; Step:   544; Simulation step:18076
                  MF iterations:        5; SZ iterations:      5

Date: 1993/03/28; Stress:  1; Step:   545; Simulation step:18077
                  MF iterations:        4; SZ iterations:      4

Date: 1993/03/29; Stress:  1; Step:   546; Simulation step:18078
                  MF iterations:        5; SZ iterations:      5

Date: 1993/03/30; Stress:  1; Step:   547; Simulation step:18079
                  MF iterations:        7; SZ iterations:      7

Date: 1993/03/31; Stress:  1; Step:   548; Simulation step:18080
                  MF iterations:        8; SZ iterations:      8

Date: 1993/04/01; Stress:  1; Step:   549; Simulation step:18081
                  MF iterations:        3; SZ iterations:      3

Date: 1993/04/02; Stress:  1; Step:   550; Simulation step:18082
                  MF iterations:        5; SZ iterations:      5

Date: 1993/04/03; Stress:  1; Step:   551; Simulation step:18083
                  MF iterations:        6; SZ iterations:      6

Date: 1993/04/04; Stress:  1; Step:   552; Simulation step:18084
                  MF iterations:        4; SZ iterations:      4

Date: 1993/04/05; Stress:  1; Step:   553; Simulation step:18085
                  MF iterations:       30; SZ iterations:     30

Date: 1993/04/06; Stress:  1; Step:   554; Simulation step:18086
                  MF iterations:       17; SZ iterations:     17

Date: 1993/04/07; Stress:  1; Step:   555; Simulation step:18087
                  MF iterations:       15; SZ iterations:     15

Date: 1993/04/08; Stress:  1; Step:   556; Simulation step:18088
                  MF iterations:       11; SZ iterations:     11

Date: 1993/04/09; Stress:  1; Step:   557; Simulation step:18089
                  MF iterations:        4; SZ iterations:      4

Date: 1993/04/10; Stress:  1; Step:   558; Simulation step:18090
                  MF iterations:        4; SZ iterations:      4

Date: 1993/04/11; Stress:  1; Step:   559; Simulation step:18091
                  MF iterations:        4; SZ iterations:      4

Date: 1993/04/12; Stress:  1; Step:   560; Simulation step:18092
                  MF iterations:        9; SZ iterations:      9

Date: 1993/04/13; Stress:  1; Step:   561; Simulation step:18093
                  MF iterations:        5; SZ iterations:      5

Date: 1993/04/14; Stress:  1; Step:   562; Simulation step:18094
                  MF iterations:        8; SZ iterations:      8

Date: 1993/04/15; Stress:  1; Step:   563; Simulation step:18095
                  MF iterations:        4; SZ iterations:      4

Date: 1993/04/16; Stress:  1; Step:   564; Simulation step:18096
                  MF iterations:        5; SZ iterations:      5

Date: 1993/04/17; Stress:  1; Step:   565; Simulation step:18097
                  MF iterations:        5; SZ iterations:      5

Date: 1993/04/18; Stress:  1; Step:   566; Simulation step:18098
                  MF iterations:        4; SZ iterations:      4

Date: 1993/04/19; Stress:  1; Step:   567; Simulation step:18099
                  MF iterations:       11; SZ iterations:     11

[...]

Date: 2015/05/16; Stress:  1; Step:  8629; Simulation step:26161
                  MF iterations:       76; SZ iterations:     76

Date: 2015/05/17; Stress:  1; Step:  8630; Simulation step:26162
                  MF iterations:       70; SZ iterations:     70

Date: 2015/05/18; Stress:  1; Step:  8631; Simulation step:26163
                  MF iterations:       62; SZ iterations:     62

Date: 2015/05/19; Stress:  1; Step:  8632; Simulation step:26164
                  MF iterations:       64; SZ iterations:     64

Date: 2015/05/20; Stress:  1; Step:  8633; Simulation step:26165
                  MF iterations:       53; SZ iterations:     53

Date: 2015/05/21; Stress:  1; Step:  8634; Simulation step:26166
                  MF iterations:       55; SZ iterations:     55

Date: 2015/05/22; Stress:  1; Step:  8635; Simulation step:26167
                  MF iterations:        9; SZ iterations:      9

Date: 2015/05/23; Stress:  1; Step:  8636; Simulation step:26168
                  MF iterations:       11; SZ iterations:     11

Date: 2015/05/24; Stress:  1; Step:  8637; Simulation step:26169
                  MF iterations:       92; SZ iterations:     92

Date: 2015/05/25; Stress:  1; Step:  8638; Simulation step:26170
                  MF iterations:       80; SZ iterations:     80

Date: 2015/05/26; Stress:  1; Step:  8639; Simulation step:26171
                  MF iterations:       66; SZ iterations:     66

Date: 2015/05/27; Stress:  1; Step:  8640; Simulation step:26172
                  MF iterations:       60; SZ iterations:     60

Date: 2015/05/28; Stress:  1; Step:  8641; Simulation step:26173
                  MF iterations:       69; SZ iterations:     69

Date: 2015/05/29; Stress:  1; Step:  8642; Simulation step:26174
                  MF iterations:       75; SZ iterations:     75

Date: 2015/05/30; Stress:  1; Step:  8643; Simulation step:26175
                  MF iterations:       89; SZ iterations:     89

Date: 2015/05/31; Stress:  1; Step:  8644; Simulation step:26176
                  MF iterations:      140; SZ iterations:    140

Date: 2015/06/01; Stress:  1; Step:  8645; Simulation step:26177
                  MF iterations:       94; SZ iterations:     94

Date: 2015/06/02; Stress:  1; Step:  8646; Simulation step:26178
                  MF iterations:       97; SZ iterations:     97

Date: 2015/06/03; Stress:  1; Step:  8647; Simulation step:26179
                  MF iterations:       95; SZ iterations:     95

Date: 2015/06/04; Stress:  1; Step:  8648; Simulation step:26180
                  MF iterations:       98; SZ iterations:     98

Date: 2015/06/05; Stress:  1; Step:  8649; Simulation step:26181
                  MF iterations:       92; SZ iterations:     92

Date: 2015/06/06; Stress:  1; Step:  8650; Simulation step:26182
                  MF iterations:       87; SZ iterations:     87

Date: 2015/06/07; Stress:  1; Step:  8651; Simulation step:26183
                  MF iterations:       76; SZ iterations:     76

Date: 2015/06/08; Stress:  1; Step:  8652; Simulation step:26184
                  MF iterations:       85; SZ iterations:     85

Date: 2015/06/09; Stress:  1; Step:  8653; Simulation step:26185
                  MF iterations:       77; SZ iterations:     77

Date: 2015/06/10; Stress:  1; Step:  8654; Simulation step:26186
                  MF iterations:       78; SZ iterations:     78

Date: 2015/06/11; Stress:  1; Step:  8655; Simulation step:26187
                  MF iterations:        7; SZ iterations:      7

Date: 2015/06/12; Stress:  1; Step:  8656; Simulation step:26188
                  MF iterations:       28; SZ iterations:     28

Date: 2015/06/13; Stress:  1; Step:  8657; Simulation step:26189
                  MF iterations:       18; SZ iterations:     18

Date: 2015/06/14; Stress:  1; Step:  8658; Simulation step:26190
                  MF iterations:       16; SZ iterations:     16

Date: 2015/06/15; Stress:  1; Step:  8659; Simulation step:26191
                  MF iterations:       16; SZ iterations:     16

Date: 2015/06/16; Stress:  1; Step:  8660; Simulation step:26192
                  MF iterations:       17; SZ iterations:     17

Date: 2015/06/17; Stress:  1; Step:  8661; Simulation step:26193
                  MF iterations:       25; SZ iterations:     25

Date: 2015/06/18; Stress:  1; Step:  8662; Simulation step:26194
                  MF iterations:      108; SZ iterations:    108

***TIME STEP FAILED TO CONVERGE - Date: 2015/06/19 number:   103

Date: 2015/06/19; Stress:  1; Step:  8663; Simulation step:26195
                  MF iterations:      200; SZ iterations:    200

Date: 2015/06/20; Stress:  1; Step:  8664; Simulation step:26196
                  MF iterations:      185; SZ iterations:    185

Date: 2015/06/21; Stress:  1; Step:  8665; Simulation step:26197
                  MF iterations:        6; SZ iterations:      6

Date: 2015/06/22; Stress:  1; Step:  8666; Simulation step:26198
                  MF iterations:        4; SZ iterations:      4

Date: 2015/06/23; Stress:  1; Step:  8667; Simulation step:26199
                  MF iterations:       44; SZ iterations:     44

Date: 2015/06/24; Stress:  1; Step:  8668; Simulation step:26200
                  MF iterations:       59; SZ iterations:     59

Date: 2015/06/25; Stress:  1; Step:  8669; Simulation step:26201
                  MF iterations:       46; SZ iterations:     46

Date: 2015/06/26; Stress:  1; Step:  8670; Simulation step:26202
                  MF iterations:      112; SZ iterations:    112

Date: 2015/06/27; Stress:  1; Step:  8671; Simulation step:26203
                  MF iterations:       13; SZ iterations:     13

Date: 2015/06/28; Stress:  1; Step:  8672; Simulation step:26204
                  MF iterations:       35; SZ iterations:     35

Date: 2015/06/29; Stress:  1; Step:  8673; Simulation step:26205
                  MF iterations:       80; SZ iterations:     80

Date: 2015/06/30; Stress:  1; Step:  8674; Simulation step:26206
                  MF iterations:        6; SZ iterations:      6

Date: 2015/07/01; Stress:  1; Step:  8675; Simulation step:26207
                  MF iterations:       18; SZ iterations:     18

Date: 2015/07/02; Stress:  1; Step:  8676; Simulation step:26208
                  MF iterations:       12; SZ iterations:     12

Date: 2015/07/03; Stress:  1; Step:  8677; Simulation step:26209
                  MF iterations:       25; SZ iterations:     25

Date: 2015/07/04; Stress:  1; Step:  8678; Simulation step:26210
                  MF iterations:       27; SZ iterations:     27

Date: 2015/07/05; Stress:  1; Step:  8679; Simulation step:26211
                  MF iterations:        4; SZ iterations:      4

Date: 2015/07/06; Stress:  1; Step:  8680; Simulation step:26212
                  MF iterations:        5; SZ iterations:      5

Date: 2015/07/07; Stress:  1; Step:  8681; Simulation step:26213
                  MF iterations:       34; SZ iterations:     34

Date: 2015/07/08; Stress:  1; Step:  8682; Simulation step:26214
                  MF iterations:        8; SZ iterations:      8

Date: 2015/07/09; Stress:  1; Step:  8683; Simulation step:26215
                  MF iterations:       40; SZ iterations:     40

Date: 2015/07/10; Stress:  1; Step:  8684; Simulation step:26216
                  MF iterations:        9; SZ iterations:      9

Date: 2015/07/11; Stress:  1; Step:  8685; Simulation step:26217
                  MF iterations:        4; SZ iterations:      4

Date: 2015/07/12; Stress:  1; Step:  8686; Simulation step:26218
                  MF iterations:        8; SZ iterations:      8

Date: 2015/07/13; Stress:  1; Step:  8687; Simulation step:26219
                  MF iterations:       35; SZ iterations:     35

Date: 2015/07/14; Stress:  1; Step:  8688; Simulation step:26220
                  MF iterations:       44; SZ iterations:     44

Date: 2015/07/15; Stress:  1; Step:  8689; Simulation step:26221
                  MF iterations:       42; SZ iterations:     42

Date: 2015/07/16; Stress:  1; Step:  8690; Simulation step:26222
                  MF iterations:       46; SZ iterations:     46

Date: 2015/07/17; Stress:  1; Step:  8691; Simulation step:26223
                  MF iterations:       47; SZ iterations:     47

Date: 2015/07/18; Stress:  1; Step:  8692; Simulation step:26224
                  MF iterations:       48; SZ iterations:     48

Date: 2015/07/19; Stress:  1; Step:  8693; Simulation step:26225
                  MF iterations:       48; SZ iterations:     48

Date: 2015/07/20; Stress:  1; Step:  8694; Simulation step:26226
                  MF iterations:       65; SZ iterations:     65

Date: 2015/07/21; Stress:  1; Step:  8695; Simulation step:26227
                  MF iterations:       37; SZ iterations:     37

Date: 2015/07/22; Stress:  1; Step:  8696; Simulation step:26228
                  MF iterations:        6; SZ iterations:      6

***TIME STEP FAILED TO CONVERGE - Date: 2015/07/23 number:   104

Date: 2015/07/23; Stress:  1; Step:  8697; Simulation step:26229
                  MF iterations:      200; SZ iterations:    200

Date: 2015/07/24; Stress:  1; Step:  8698; Simulation step:26230
                  MF iterations:       34; SZ iterations:     34

Date: 2015/07/25; Stress:  1; Step:  8699; Simulation step:26231
                  MF iterations:       10; SZ iterations:     10

Date: 2015/07/26; Stress:  1; Step:  8700; Simulation step:26232
                  MF iterations:       12; SZ iterations:     12

Date: 2015/07/27; Stress:  1; Step:  8701; Simulation step:26233
                  MF iterations:       35; SZ iterations:     35

Date: 2015/07/28; Stress:  1; Step:  8702; Simulation step:26234
                  MF iterations:        7; SZ iterations:      7

Date: 2015/07/29; Stress:  1; Step:  8703; Simulation step:26235
                  MF iterations:      113; SZ iterations:    113

Date: 2015/07/30; Stress:  1; Step:  8704; Simulation step:26236
                  MF iterations:       13; SZ iterations:     13

Date: 2015/07/31; Stress:  1; Step:  8705; Simulation step:26237
                  MF iterations:       12; SZ iterations:     12

Date: 2015/08/01; Stress:  1; Step:  8706; Simulation step:26238
                  MF iterations:       21; SZ iterations:     21

Date: 2015/08/02; Stress:  1; Step:  8707; Simulation step:26239
                  MF iterations:        9; SZ iterations:      9

Date: 2015/08/03; Stress:  1; Step:  8708; Simulation step:26240
                  MF iterations:       14; SZ iterations:     14

Date: 2015/08/04; Stress:  1; Step:  8709; Simulation step:26241
                  MF iterations:       18; SZ iterations:     18

Date: 2015/08/05; Stress:  1; Step:  8710; Simulation step:26242
                  MF iterations:        8; SZ iterations:      8

Date: 2015/08/06; Stress:  1; Step:  8711; Simulation step:26243
                  MF iterations:       33; SZ iterations:     33

Date: 2015/08/07; Stress:  1; Step:  8712; Simulation step:26244
                  MF iterations:       28; SZ iterations:     28

Date: 2015/08/08; Stress:  1; Step:  8713; Simulation step:26245
                  MF iterations:       35; SZ iterations:     35

Date: 2015/08/09; Stress:  1; Step:  8714; Simulation step:26246
                  MF iterations:       89; SZ iterations:     89

Date: 2015/08/10; Stress:  1; Step:  8715; Simulation step:26247
                  MF iterations:       11; SZ iterations:     11

Date: 2015/08/11; Stress:  1; Step:  8716; Simulation step:26248
                  MF iterations:       36; SZ iterations:     36

Date: 2015/08/12; Stress:  1; Step:  8717; Simulation step:26249
                  MF iterations:       24; SZ iterations:     24

Date: 2015/08/13; Stress:  1; Step:  8718; Simulation step:26250
                  MF iterations:       20; SZ iterations:     20

Date: 2015/08/14; Stress:  1; Step:  8719; Simulation step:26251
                  MF iterations:       30; SZ iterations:     30

Date: 2015/08/15; Stress:  1; Step:  8720; Simulation step:26252
                  MF iterations:       16; SZ iterations:     16

Date: 2015/08/16; Stress:  1; Step:  8721; Simulation step:26253
                  MF iterations:       19; SZ iterations:     19

Date: 2015/08/17; Stress:  1; Step:  8722; Simulation step:26254
                  MF iterations:       95; SZ iterations:     95

Date: 2015/08/18; Stress:  1; Step:  8723; Simulation step:26255
                  MF iterations:       50; SZ iterations:     50

Date: 2015/08/19; Stress:  1; Step:  8724; Simulation step:26256
                  MF iterations:       49; SZ iterations:     49

Date: 2015/08/20; Stress:  1; Step:  8725; Simulation step:26257
                  MF iterations:       35; SZ iterations:     35

Date: 2015/08/21; Stress:  1; Step:  8726; Simulation step:26258
                  MF iterations:       26; SZ iterations:     26

Date: 2015/08/22; Stress:  1; Step:  8727; Simulation step:26259
                  MF iterations:        4; SZ iterations:      4

Date: 2015/08/23; Stress:  1; Step:  8728; Simulation step:26260
                  MF iterations:        8; SZ iterations:      8

Date: 2015/08/24; Stress:  1; Step:  8729; Simulation step:26261
                  MF iterations:        9; SZ iterations:      9

Date: 2015/08/25; Stress:  1; Step:  8730; Simulation step:26262
                  MF iterations:       69; SZ iterations:     69

Date: 2015/08/26; Stress:  1; Step:  8731; Simulation step:26263
                  MF iterations:        8; SZ iterations:      8

Date: 2015/08/27; Stress:  1; Step:  8732; Simulation step:26264
                  MF iterations:        6; SZ iterations:      6

Date: 2015/08/28; Stress:  1; Step:  8733; Simulation step:26265
                  MF iterations:        9; SZ iterations:      9

Date: 2015/08/29; Stress:  1; Step:  8734; Simulation step:26266
                  MF iterations:       37; SZ iterations:     37

Date: 2015/08/30; Stress:  1; Step:  8735; Simulation step:26267
                  MF iterations:        9; SZ iterations:      9

Date: 2015/08/31; Stress:  1; Step:  8736; Simulation step:26268
                  MF iterations:        4; SZ iterations:      4

Date: 2015/09/01; Stress:  1; Step:  8737; Simulation step:26269
                  MF iterations:        5; SZ iterations:      5

Date: 2015/09/02; Stress:  1; Step:  8738; Simulation step:26270
                  MF iterations:        7; SZ iterations:      7

Date: 2015/09/03; Stress:  1; Step:  8739; Simulation step:26271
                  MF iterations:        4; SZ iterations:      4

Date: 2015/09/04; Stress:  1; Step:  8740; Simulation step:26272
                  MF iterations:       22; SZ iterations:     22

Date: 2015/09/05; Stress:  1; Step:  8741; Simulation step:26273
                  MF iterations:       24; SZ iterations:     24

Date: 2015/09/06; Stress:  1; Step:  8742; Simulation step:26274
                  MF iterations:       23; SZ iterations:     23

Date: 2015/09/07; Stress:  1; Step:  8743; Simulation step:26275
                  MF iterations:       23; SZ iterations:     23

Date: 2015/09/08; Stress:  1; Step:  8744; Simulation step:26276
                  MF iterations:       22; SZ iterations:     22

Date: 2015/09/09; Stress:  1; Step:  8745; Simulation step:26277
                  MF iterations:       24; SZ iterations:     24

Date: 2015/09/10; Stress:  1; Step:  8746; Simulation step:26278
                  MF iterations:       18; SZ iterations:     18

Date: 2015/09/11; Stress:  1; Step:  8747; Simulation step:26279
                  MF iterations:       31; SZ iterations:     31

Date: 2015/09/12; Stress:  1; Step:  8748; Simulation step:26280
                  MF iterations:       16; SZ iterations:     16

Date: 2015/09/13; Stress:  1; Step:  8749; Simulation step:26281
                  MF iterations:       15; SZ iterations:     15

Date: 2015/09/14; Stress:  1; Step:  8750; Simulation step:26282
                  MF iterations:       30; SZ iterations:     30

Date: 2015/09/15; Stress:  1; Step:  8751; Simulation step:26283
                  MF iterations:       25; SZ iterations:     25

***TIME STEP FAILED TO CONVERGE - Date: 2015/09/16 number:   105

Date: 2015/09/16; Stress:  1; Step:  8752; Simulation step:26284
                  MF iterations:      200; SZ iterations:    200

Date: 2015/09/17; Stress:  1; Step:  8753; Simulation step:26285
                  MF iterations:        4; SZ iterations:      4

Date: 2015/09/18; Stress:  1; Step:  8754; Simulation step:26286
                  MF iterations:       22; SZ iterations:     22

Date: 2015/09/19; Stress:  1; Step:  8755; Simulation step:26287
                  MF iterations:       65; SZ iterations:     65

Date: 2015/09/20; Stress:  1; Step:  8756; Simulation step:26288
                  MF iterations:       64; SZ iterations:     64

Date: 2015/09/21; Stress:  1; Step:  8757; Simulation step:26289
                  MF iterations:       61; SZ iterations:     61

Date: 2015/09/22; Stress:  1; Step:  8758; Simulation step:26290
                  MF iterations:       66; SZ iterations:     66

Date: 2015/09/23; Stress:  1; Step:  8759; Simulation step:26291
                  MF iterations:        7; SZ iterations:      7

Date: 2015/09/24; Stress:  1; Step:  8760; Simulation step:26292
                  MF iterations:       31; SZ iterations:     31

Date: 2015/09/25; Stress:  1; Step:  8761; Simulation step:26293
                  MF iterations:        6; SZ iterations:      6

Date: 2015/09/26; Stress:  1; Step:  8762; Simulation step:26294
                  MF iterations:        4; SZ iterations:      4

Date: 2015/09/27; Stress:  1; Step:  8763; Simulation step:26295
                  MF iterations:       28; SZ iterations:     28

Date: 2015/09/28; Stress:  1; Step:  8764; Simulation step:26296
                  MF iterations:       24; SZ iterations:     24

Date: 2015/09/29; Stress:  1; Step:  8765; Simulation step:26297
                  MF iterations:        6; SZ iterations:      6

Date: 2015/09/30; Stress:  1; Step:  8766; Simulation step:26298
                  MF iterations:        4; SZ iterations:      4


 Run end date and time (yyyy/mm/dd hh:mm:ss): 2019/06/17  1:19:27
 Elapsed run time: 11 Hours, 46 Minutes, 24 Seconds

 Number of time steps:   8766;  Number of non-convergence: 105
 MF iterations:        156471;  SZ iterations:          156471
 Average MF iterations: 17.85;  Average SZ iterations:   17.85
 Maximum MF iterations:   200;  Maximum SZ iterations:     200

MF iteration distribution:      0   79 1157 1052  480  453  462  499  569  545
                              444  349  285  283  205  172  135   98  105   58
                               66   49   53   49   26   35   27   32   23   27
                               10   16   16   11   20   14   12    8   19   16
                               23   12   16   19   15   10    9   11    9    9
                                7    8   13    9   13   12    7   10    7    9
                                7    7    4   16    8    6   10    5    6   14
                                4    5    6    2    7    3   11    3    9  446



SZ computation distribution:    0   79 1157 1052  480  453  462  499  569  545
                              444  349  285  283  205  172  135   98  105   58
                               66   49   53   49   26   35   27   32   23   27
                               10   16   16   11   20   14   12    8   19   16
                               23   12   16   19   15   10    9   11    9    9
                                7    8   13    9   13   12    7   10    7    9
                                7    7    4   16    8    6   10    5    6   14
                                4    5    6    2    7    3   11    3    9  446



 FAILED TO MEET SOLVER CONVERGENCE CRITERIA          105  TIME(S)
